data_intentionally_messed_up_hmof1\(2)
_audit_creation_date              2017-05-05
_audit_creation_method            'Materials Studio'
_symmetry_space_group_name_H-M    'P1'
_symmetry_Int_Tables_number       1
_symmetry_cell_setting            triclinic
loop_
_symmetry_equiv_pos_as_xyz
  x,y,z
_cell_length_a                    12.7594
_cell_length_b                    12.7594
_cell_length_c                    12.7594
_cell_angle_alpha                 89.9680
_cell_angle_beta                  89.9802
_cell_angle_gamma                 90.0166
loop_
_atom_site_label
_atom_site_type_symbol
_atom_site_fract_x
_atom_site_fract_y
_atom_site_fract_z
_atom_site_U_iso_or_equiv
_atom_site_adp_type
_atom_site_occupancy
Zn1    Zn    1.60625  -0.41816  -0.59402   0.00000  Uiso   1.00
Zn2    Zn    2.10625   0.08184  -0.09402   0.00000  Uiso   1.00
Zn3    Zn    1.60615  -0.59388  -0.41834   0.00000  Uiso   1.00
Zn4    Zn    2.10614  -0.09388   0.08166   0.00000  Uiso   1.00
Zn5    Zn    1.43055  -0.41822  -0.41835   0.00000  Uiso   1.00
Zn6    Zn    1.93055   0.08178   0.08165   0.00000  Uiso   1.00
Zn7    Zn    1.43054  -0.59380  -0.59397   0.00000  Uiso   1.00
Zn8    Zn    1.93054  -0.09380  -0.09397   0.00000  Uiso   1.00
O9     O     1.51837  -0.50602  -0.50617   0.00000  Uiso   1.00
O10    O     2.01837  -0.00602  -0.00617   0.00000  Uiso   1.00
O11    O     1.75326  -0.44148  -0.57072   0.00000  Uiso   1.00
O12    O     2.25326   0.05852  -0.07072   0.00000  Uiso   1.00
O13    O     1.58281  -0.57064  -0.27132   0.00000  Uiso   1.00
O14    O     2.08281  -0.07063   0.22868   0.00000  Uiso   1.00
O15    O     1.45391  -0.27119  -0.44168   0.00000  Uiso   1.00
O16    O     1.95391   0.22881   0.05832   0.00000  Uiso   1.00
O17    O     1.75318  -0.57058  -0.44165   0.00000  Uiso   1.00
O18    O     2.25318  -0.07058   0.05835   0.00000  Uiso   1.00
O19    O     1.58299  -0.27115  -0.57074   0.00000  Uiso   1.00
O20    O     2.08299   0.22885  -0.07074   0.00000  Uiso   1.00
O21    O     1.45381  -0.44158  -0.27133   0.00000  Uiso   1.00
O22    O     1.95381   0.05842   0.22867   0.00000  Uiso   1.00
O23    O     1.28353  -0.44150  -0.44164   0.00000  Uiso   1.00
O24    O     1.78353   0.05850   0.05836   0.00000  Uiso   1.00
O25    O     1.45389  -0.57045  -0.74100   0.00000  Uiso   1.00
O26    O     1.95389  -0.07045  -0.24100   0.00000  Uiso   1.00
O27    O     1.28352  -0.57050  -0.57067   0.00000  Uiso   1.00
O28    O     1.78352  -0.07050  -0.07067   0.00000  Uiso   1.00
O29    O     1.58298  -0.44140  -0.74103   0.00000  Uiso   1.00
O30    O     2.08298   0.05860  -0.24103   0.00000  Uiso   1.00
O31    O     1.58280  -0.74089  -0.44161   0.00000  Uiso   1.00
O32    O     2.08280  -0.24089   0.05839   0.00000  Uiso   1.00
O33    O     1.45378  -0.74083  -0.57065   0.00000  Uiso   1.00
O34    O     1.95378  -0.24083  -0.07065   0.00000  Uiso   1.00
C35    C     1.24541  -0.50600  -0.50615   0.00000  Uiso   1.00
C36    C     1.74541  -0.00600  -0.00615   0.00000  Uiso   1.00
C37    C     1.12863  -0.50602  -0.50617   0.00000  Uiso   1.00
C38    C     1.62863  -0.00602  -0.00617   0.00000  Uiso   1.00
C39    C     1.51831  -0.77898  -0.50615   0.00000  Uiso   1.00
C40    C     2.01831  -0.27898  -0.00615   0.00000  Uiso   1.00
C41    C     1.51838  -0.89576  -0.50617   0.00000  Uiso   1.00
C42    C     2.01838  -0.39576  -0.00617   0.00000  Uiso   1.00
C43    C     1.07379  -0.57330  -0.57324   0.00000  Uiso   1.00
C44    C     1.57379  -0.07330  -0.07324   0.00000  Uiso   1.00
C45    C     0.96407  -0.57330  -0.57327   0.00000  Uiso   1.00
C46    C     1.46407  -0.07330  -0.07327   0.00000  Uiso   1.00
C47    C     0.96403  -0.43876  -0.43912   0.00000  Uiso   1.00
C48    C     1.46403   0.06124   0.06088   0.00000  Uiso   1.00
C49    C     1.07375  -0.43875  -0.43910   0.00000  Uiso   1.00
C50    C     1.57375   0.06125   0.06090   0.00000  Uiso   1.00
C51    C     1.58563  -0.95062  -0.43906   0.00000  Uiso   1.00
C52    C     2.08563  -0.45062   0.06094   0.00000  Uiso   1.00
C53    C     1.58570  -1.06034  -0.43909   0.00000  Uiso   1.00
C54    C     2.08570  -0.56034   0.06091   0.00000  Uiso   1.00
C55    C     1.45125  -1.06034  -0.57336   0.00000  Uiso   1.00
C56    C     1.95125  -0.56034  -0.07336   0.00000  Uiso   1.00
C57    C     1.45119  -0.95062  -0.57333   0.00000  Uiso   1.00
C58    C     1.95119  -0.45062  -0.07333   0.00000  Uiso   1.00
C59    C     1.79241  -0.50603  -0.50619   0.00000  Uiso   1.00
C60    C     2.29241  -0.00603  -0.00619   0.00000  Uiso   1.00
C61    C     1.90918  -0.50604  -0.50620   0.00000  Uiso   1.00
C62    C     2.40918  -0.00604  -0.00620   0.00000  Uiso   1.00
C63    C     1.51845  -0.50591  -0.78020   0.00000  Uiso   1.00
C64    C     2.01845  -0.00591  -0.28020   0.00000  Uiso   1.00
C65    C     1.51848  -0.50586  -0.89698   0.00000  Uiso   1.00
C66    C     2.01848  -0.00587  -0.39698   0.00000  Uiso   1.00
C67    C     1.51847  -0.23198  -0.50622   0.00000  Uiso   1.00
C69    C     1.51851  -0.11521  -0.50624   0.00000  Uiso   1.00
C70    C     2.01851   0.38479  -0.00624   0.00000  Uiso   1.00
C71    C     1.45133  -0.43865  -0.95185   0.00000  Uiso   1.00
C72    C     1.95133   0.06135  -0.45185   0.00000  Uiso   1.00
C73    C     1.45135  -0.43862  -1.06157   0.00000  Uiso   1.00
C74    C     1.95135   0.06138  -0.56157   0.00000  Uiso   1.00
C75    C     1.58569  -0.57301  -1.06155   0.00000  Uiso   1.00
C76    C     2.08569  -0.07301  -0.56155   0.00000  Uiso   1.00
C77    C     1.58565  -0.57305  -0.95183   0.00000  Uiso   1.00
C78    C     2.08565  -0.07305  -0.45183   0.00000  Uiso   1.00
C79    C     1.51836  -0.50605  -0.23320   0.00000  Uiso   1.00
C80    C     2.01836  -0.00605   0.26680   0.00000  Uiso   1.00
C81    C     1.51853  -0.50580  -0.11643   0.00000  Uiso   1.00
C82    C     2.01853  -0.00580   0.38357   0.00000  Uiso   1.00
H83    H     1.11847  -0.62807  -0.62785   0.00000  Uiso   1.00
H84    H     1.61847  -0.12807  -0.12785   0.00000  Uiso   1.00
H85    H     0.91934  -0.38398  -0.38452   0.00000  Uiso   1.00
H86    H     1.41934   0.11602   0.11548   0.00000  Uiso   1.00
H87    H     1.64038  -0.62771  -1.10622   0.00000  Uiso   1.00
H88    H     2.14038  -0.12772  -0.60622   0.00000  Uiso   1.00
H89    H     1.39667  -0.38389  -1.10624   0.00000  Uiso   1.00
H90    H     1.89667   0.11611  -0.60624   0.00000  Uiso   1.00
H91    H     1.39654  -1.10502  -0.62803   0.00000  Uiso   1.00
H92    H     1.89654  -0.60502  -0.12803   0.00000  Uiso   1.00
H93    H     1.39663  -0.38394  -0.90719   0.00000  Uiso   1.00
H94    H     1.89663   0.11605  -0.40719   0.00000  Uiso   1.00
H95    H     1.64047  -1.10500  -0.38444   0.00000  Uiso   1.00
H96    H     2.14047  -0.60500   0.11556   0.00000  Uiso   1.00
H97    H     1.11840  -0.38396  -0.38448   0.00000  Uiso   1.00
H98    H     1.61840   0.11604   0.11552   0.00000  Uiso   1.00
H99    H     1.39642  -0.90595  -0.62799   0.00000  Uiso   1.00
H101   H     0.91942  -0.62808  -0.62789   0.00000  Uiso   1.00
H102   H     1.41942  -0.12808  -0.12789   0.00000  Uiso   1.00
H103   H     1.64034  -0.90595  -0.38437   0.00000  Uiso   1.00
H104   H     2.14034  -0.40595   0.11563   0.00000  Uiso   1.00
H105   H     1.64034  -0.62779  -0.90715   0.00000  Uiso   1.00
H106   H     2.14034  -0.12779  -0.40715   0.00000  Uiso   1.00
loop_
_geom_bond_atom_site_label_1
_geom_bond_atom_site_label_2
_geom_bond_distance
_geom_bond_site_symmetry_2
_ccdc_geom_bond_type
Zn1    O9      1.941   .     S
Zn1    O11     1.922   .     S
Zn1    O19     1.922   .     S
Zn1    O29     1.922   .     S
Zn2    O10     1.941   .     S
Zn2    O12     1.922   .     S
Zn2    O20     1.922   .     S
Zn2    O30     1.922   .     S
Zn3    O9      1.941   .     S
Zn3    O13     1.922   .     S
Zn3    O17     1.922   .     S
Zn3    O31     1.922   .     S
Zn4    O10     1.941   .     S
Zn4    O14     1.922   .     S
Zn4    O18     1.922   .     S
Zn4    O32     1.922   .     S
Zn5    O9      1.941   .     S
Zn5    O15     1.922   .     S
Zn5    O21     1.922   .     S
Zn5    O23     1.922   .     S
Zn6    O10     1.941   .     S
Zn6    O16     1.922   .     S
Zn6    O22     1.922   .     S
Zn6    O24     1.922   .     S
Zn7    O9      1.941   .     S
Zn7    O25     1.922   .     S
Zn7    O27     1.922   .     S
Zn7    O33     1.922   .     S
Zn8    O10     1.941   .     S
Zn8    O26     1.922   .     S
Zn8    O28     1.922   .     S
Zn8    O34     1.922   .     S
O11    C59     1.267   .     A
O12    C60     1.267   .     A
O13    C79     1.262   .     A
O14    C80     1.262   .     A
O15    C67     1.267   .     A
O17    C59     1.267   .     A
O18    C60     1.267   .     A
O19    C67     1.267   .     A
O21    C79     1.262   .     A
O22    C80     1.262   .     A
O23    C35     1.262   .     A
O24    C36     1.262   .     A
O25    C63     1.267   .     A
O26    C64     1.267   .     A
O27    C35     1.262   .     A
O28    C36     1.262   .     A
O29    C63     1.267   .     A
O30    C64     1.267   .     A
O31    C39     1.262   .     A
O32    C40     1.262   .     A
O33    C39     1.262   .     A
O34    C40     1.262   .     A
C35    C37     1.490   .     S
C36    C38     1.490   .     S
C37    C43     1.400   .     A
C37    C49     1.400   .     A
C38    C44     1.400   .     A
C38    C50     1.400   .     A
C39    C41     1.490   .     S
C40    C42     1.490   .     S
C41    C51     1.400   .     A
C41    C57     1.400   .     A
C42    C52     1.400   .     S
C42    C58     1.400   .     D
C43    C45     1.400   .     A
C43    H83     1.140   .     S
C44    C46     1.400   .     A
C44    H84     1.140   .     S
C45    C61     1.400   1_455 A
C45    H101    1.140   .     S
C46    C62     1.400   1_455 A
C46    H102    1.140   .     S
C47    C49     1.400   .     A
C47    C61     1.400   1_455 A
C47    H85     1.140   .     S
C48    C50     1.400   .     A
C48    C62     1.400   1_455 A
C48    H86     1.140   .     S
C49    H97     1.140   .     S
C50    H98     1.140   .     S
C51    C53     1.400   .     A
C51    H103    1.140   .     S
C52    C54     1.400   .     D
C52    H104    1.140   .     S
C53    C69     1.400   1_545 A
C53    H95     1.140   .     S
C54    C70     1.400   1_545 S
C54    H96     1.140   .     S
C55    C57     1.400   .     A
C55    C69     1.400   1_545 A
C55    H91     1.140   .     S
C56    C58     1.400   .     D
C56    C70     1.400   1_545 S
C56    H92     1.140   .     S
C57    H99     1.140   .     S
C59    C61     1.490   .     S
C60    C62     1.490   .     S
C61    C47     1.400   1_655 A
C61    C45     1.400   1_655 A
C62    C46     1.400   1_655 A
C62    C48     1.400   1_655 A
C63    C65     1.490   .     S
C64    C66     1.490   .     S
C65    C71     1.400   .     A
C65    C77     1.400   .     A
C66    C72     1.400   .     A
C66    C78     1.400   .     A
C67    C69     1.490   .     S
C69    C53     1.400   1_565 A
C69    C55     1.400   1_565 A
C70    C54     1.400   1_565 S
C70    C56     1.400   1_565 S
C71    C73     1.400   .     A
C71    H93     1.140   .     S
C72    C74     1.400   .     A
C72    H94     1.140   .     S
C73    C81     1.400   1_554 A
C73    H89     1.140   .     S
C74    C82     1.400   1_554 A
C74    H90     1.140   .     S
C75    C77     1.400   .     A
C75    C81     1.400   1_554 A
C75    H87     1.140   .     S
C76    C78     1.400   .     A
C76    C82     1.400   1_554 A
C76    H88     1.140   .     S
C77    H105    1.140   .     S
C78    H106    1.140   .     S
C79    C81     1.490   .     S
C80    C82     1.490   .     S
C81    C73     1.400   1_556 A
C81    C75     1.400   1_556 A
C82    C76     1.400   1_556 A
C82    C74     1.400   1_556 A
