data_MIL-47-RASPA
_audit_creation_date              2016-12-14
_audit_creation_method            'Materials Studio'
_symmetry_space_group_name_H-M    'P1'
_symmetry_Int_Tables_number       1
_symmetry_cell_setting            triclinic
loop_
_symmetry_equiv_pos_as_xyz
  x,y,z
_cell_length_a                    6.8179
_cell_length_b                    16.1430
_cell_length_c                    13.9390
_cell_angle_alpha                 90.0000
_cell_angle_beta                  90.0000
_cell_angle_gamma                 90.0000
loop_
_atom_site_label
_atom_site_type_symbol
_atom_site_fract_x
_atom_site_fract_y
_atom_site_fract_z
_atom_site_U_iso_or_equiv
_atom_site_adp_type
_atom_site_occupancy
O1     O     0.31180   0.16320   0.65550   0.00000  Uiso   1.00
O2     O     0.14150   0.16260   0.83350   0.00000  Uiso   1.00
C3     C     0.32250   0.03290   0.52610   0.00000  Uiso   1.00
H4     H     0.20150   0.05540   0.54250   0.00000  Uiso   1.00
C5     C     0.66750   0.03230   0.53690   0.00000  Uiso   1.00
H6     H     0.78300   0.05480   0.56110   0.00000  Uiso   1.00
C7     C     0.49110   0.06490   0.56500   0.00000  Uiso   1.00
C8     C     0.47810   0.13660   0.63330   0.00000  Uiso   1.00
O9     O     0.18820   0.83680   0.15550   0.00000  Uiso   1.00
O10    O     0.35850   0.83740   0.33350   0.00000  Uiso   1.00
C11    C     0.17750   0.96710   0.02610   0.00000  Uiso   1.00
H12    H     0.29850   0.94460   0.04250   0.00000  Uiso   1.00
C13    C     0.83250   0.96770   0.03690   0.00000  Uiso   1.00
H14    H     0.71700   0.94520   0.06110   0.00000  Uiso   1.00
C15    C     0.00890   0.93510   0.06500   0.00000  Uiso   1.00
C16    C     0.02190   0.86340   0.13330   0.00000  Uiso   1.00
O17    O     0.68820   0.66320   0.34450   0.00000  Uiso   1.00
O18    O     0.85850   0.66260   0.16650   0.00000  Uiso   1.00
C19    C     0.67750   0.53290   0.47390   0.00000  Uiso   1.00
H20    H     0.79850   0.55540   0.45750   0.00000  Uiso   1.00
C21    C     0.33250   0.53230   0.46310   0.00000  Uiso   1.00
H22    H     0.21700   0.55480   0.43890   0.00000  Uiso   1.00
C23    C     0.50890   0.56490   0.43500   0.00000  Uiso   1.00
C24    C     0.52190   0.63660   0.36670   0.00000  Uiso   1.00
O25    O     0.81180   0.33680   0.84450   0.00000  Uiso   1.00
O26    O     0.64150   0.33740   0.66650   0.00000  Uiso   1.00
C27    C     0.82250   0.46710   0.97390   0.00000  Uiso   1.00
H28    H     0.70150   0.44460   0.95750   0.00000  Uiso   1.00
C29    C     0.16750   0.46770   0.96310   0.00000  Uiso   1.00
H30    H     0.28300   0.44520   0.93890   0.00000  Uiso   1.00
C31    C     0.99110   0.43510   0.93500   0.00000  Uiso   1.00
C32    C     0.97810   0.36340   0.86670   0.00000  Uiso   1.00
O33    O     0.68820   0.83680   0.34450   0.00000  Uiso   1.00
O34    O     0.85850   0.83740   0.16650   0.00000  Uiso   1.00
C35    C     0.67750   0.96710   0.47390   0.00000  Uiso   1.00
H36    H     0.79850   0.94460   0.45750   0.00000  Uiso   1.00
C37    C     0.33250   0.96770   0.46310   0.00000  Uiso   1.00
H38    H     0.21700   0.94520   0.43890   0.00000  Uiso   1.00
C39    C     0.50890   0.93510   0.43500   0.00000  Uiso   1.00
C40    C     0.52190   0.86340   0.36670   0.00000  Uiso   1.00
O41    O     0.81180   0.16320   0.84450   0.00000  Uiso   1.00
O42    O     0.64150   0.16260   0.66650   0.00000  Uiso   1.00
C43    C     0.82250   0.03290   0.97390   0.00000  Uiso   1.00
H44    H     0.70150   0.05540   0.95750   0.00000  Uiso   1.00
C45    C     0.16750   0.03230   0.96310   0.00000  Uiso   1.00
H46    H     0.28300   0.05480   0.93890   0.00000  Uiso   1.00
C47    C     0.99110   0.06490   0.93500   0.00000  Uiso   1.00
C48    C     0.97810   0.13660   0.86670   0.00000  Uiso   1.00
O49    O     0.31180   0.33680   0.65550   0.00000  Uiso   1.00
O50    O     0.14150   0.33740   0.83350   0.00000  Uiso   1.00
C51    C     0.32250   0.46710   0.52610   0.00000  Uiso   1.00
H52    H     0.20150   0.44460   0.54250   0.00000  Uiso   1.00
C53    C     0.66750   0.46770   0.53690   0.00000  Uiso   1.00
H54    H     0.78300   0.44520   0.56110   0.00000  Uiso   1.00
C55    C     0.49110   0.43510   0.56500   0.00000  Uiso   1.00
C56    C     0.47810   0.36340   0.63330   0.00000  Uiso   1.00
O57    O     0.18820   0.66320   0.15550   0.00000  Uiso   1.00
O58    O     0.35850   0.66260   0.33350   0.00000  Uiso   1.00
C59    C     0.17750   0.53290   0.02610   0.00000  Uiso   1.00
H60    H     0.29850   0.55540   0.04250   0.00000  Uiso   1.00
C61    C     0.83250   0.53230   0.03690   0.00000  Uiso   1.00
H62    H     0.71700   0.55480   0.06110   0.00000  Uiso   1.00
C63    C     0.00890   0.56490   0.06500   0.00000  Uiso   1.00
C64    C     0.02190   0.63660   0.13330   0.00000  Uiso   1.00
V65    V     0.20020   0.25000   0.73916   0.00000  Uiso   1.00
O66    O     0.97510   0.25000   0.69160   0.00000  Uiso   1.00
V67    V     0.29980   0.75000   0.23916   0.00000  Uiso   1.00
O68    O     0.52490   0.75000   0.19160   0.00000  Uiso   1.00
V69    V     0.79980   0.75000   0.26084   0.00000  Uiso   1.00
O70    O     0.02490   0.75000   0.30840   0.00000  Uiso   1.00
V71    V     0.70020   0.25000   0.76084   0.00000  Uiso   1.00
O72    O     0.47510   0.25000   0.80840   0.00000  Uiso   1.00
loop_
_geom_bond_atom_site_label_1
_geom_bond_atom_site_label_2
_geom_bond_distance
_geom_bond_site_symmetry_2
_ccdc_geom_bond_type
O1     C8      1.251   .     A
O1     V65     1.975   .     S
O2     V65     1.970   .     S
O2     C48     1.277   1_455 A
C3     H4      0.930   .     S
C3     C7      1.372   .     A
C3     C37     1.372   1_545 A
C5     H6      0.930   .     S
C5     C7      1.370   .     A
C5     C35     1.372   1_545 A
C7     C8      1.501   .     S
C8     O42     1.277   .     A
O9     C16     1.251   .     A
O9     V67     1.975   .     S
O10    V67     1.970   .     S
O10    C40     1.277   .     A
C11    H12     0.930   .     S
C11    C15     1.372   .     A
C11    C45     1.372   1_564 A
C13    H14     0.930   .     S
C13    C15     1.370   1_655 A
C13    C43     1.372   1_564 A
C15    C13     1.370   1_455 A
C15    C16     1.501   .     S
C16    O34     1.277   1_455 A
O17    C24     1.251   .     A
O17    V69     1.975   .     S
O18    V69     1.970   .     S
O18    C64     1.277   1_655 A
C19    H20     0.930   .     S
C19    C23     1.372   .     A
C19    C53     1.372   .     A
C21    H22     0.930   .     S
C21    C23     1.370   .     A
C21    C51     1.372   .     A
C23    C24     1.501   .     S
C24    O58     1.277   .     A
O25    C32     1.251   .     A
O25    V71     1.975   .     S
O26    V71     1.970   .     S
O26    C56     1.277   .     A
C27    H28     0.930   .     S
C27    C31     1.372   .     A
C27    C61     1.372   1_556 A
C29    H30     0.930   .     S
C29    C31     1.370   1_455 A
C29    C59     1.372   1_556 A
C31    C29     1.370   1_655 A
C31    C32     1.501   .     S
C32    O50     1.277   1_655 A
O33    C40     1.251   .     A
O33    V69     1.975   .     S
O34    V69     1.970   .     S
O34    C16     1.277   1_655 A
C35    H36     0.930   .     S
C35    C39     1.372   .     A
C35    C5      1.372   1_565 A
C37    H38     0.930   .     S
C37    C39     1.370   .     A
C37    C3      1.372   1_565 A
C39    C40     1.501   .     S
O41    C48     1.251   .     A
O41    V71     1.975   .     S
O42    V71     1.970   .     S
C43    H44     0.930   .     S
C43    C47     1.372   .     A
C43    C13     1.372   1_546 A
C45    H46     0.930   .     S
C45    C47     1.370   1_455 A
C45    C11     1.372   1_546 A
C47    C45     1.370   1_655 A
C47    C48     1.501   .     S
C48    O2      1.277   1_655 A
O49    C56     1.251   .     A
O49    V65     1.975   .     S
O50    V65     1.970   .     S
O50    C32     1.277   1_455 A
C51    H52     0.930   .     S
C51    C55     1.372   .     A
C53    H54     0.930   .     S
C53    C55     1.370   .     A
C55    C56     1.501   .     S
O57    C64     1.251   .     A
O57    V67     1.975   .     S
O58    V67     1.970   .     S
C59    H60     0.930   .     S
C59    C63     1.372   .     A
C59    C29     1.372   1_554 A
C61    H62     0.930   .     S
C61    C63     1.370   1_655 A
C61    C27     1.372   1_554 A
C63    C61     1.370   1_455 A
C63    C64     1.501   .     S
C64    O18     1.277   1_455 A
V65    O66     1.672   1_455 S
V65    O72     2.108   .     S
O66    V65     1.672   1_655 S
O66    V71     2.108   .     S
V67    O68     1.672   .     S
V67    O70     2.108   .     S
O68    V69     2.108   .     S
V69    O70     1.672   1_655 S
O70    V69     1.672   1_455 S
V71    O72     1.672   .     S
