data_hypotheticalMOF_22242_0_0_1_0_9_0
_audit_creation_date              2018-09-25
_audit_creation_method            'Materials Studio'
_symmetry_space_group_name_H-M    'P1'
_symmetry_Int_Tables_number       1
_symmetry_cell_setting            triclinic
loop_
_symmetry_equiv_pos_as_xyz
  x,y,z
_cell_length_a                    12.7900
_cell_length_b                    21.3091
_cell_length_c                    19.4604
_cell_angle_alpha                 90.0028
_cell_angle_beta                  89.9978
_cell_angle_gamma                 85.4913
loop_
_atom_site_label
_atom_site_type_symbol
_atom_site_fract_x
_atom_site_fract_y
_atom_site_fract_z
_atom_site_U_iso_or_equiv
_atom_site_adp_type
_atom_site_occupancy
O1     O     0.35328   0.16453   0.05709   0.00000  Uiso   1.00
O2     O     0.33930   0.34712   0.05710   0.00000  Uiso   1.00
O3     O     0.49828   0.25323   0.05709   0.00000  Uiso   1.00
O4     O     0.19429   0.25842   0.05709   0.00000  Uiso   1.00
O5     O     0.49829   0.25323   0.44280   0.00000  Uiso   1.00
O6     O     0.33931   0.34712   0.44281   0.00000  Uiso   1.00
O7     O     0.35328   0.16453   0.44280   0.00000  Uiso   1.00
Zn8    Zn    0.34630   0.25583   0.42466   0.00000  Uiso   1.00
Zn9    Zn    0.34629   0.25582   0.07524   0.00000  Uiso   1.00
O10    O     0.19430   0.25842   0.44280   0.00000  Uiso   1.00
C11    C     0.34033   0.37053   0.49996   0.00000  Uiso   1.00
C12    C     0.34340   0.44029   0.49996   0.00000  Uiso   1.00
C13    C     0.03721   0.25426   0.49995   0.00000  Uiso   1.00
C14    C     0.15538   0.25739   0.49995   0.00000  Uiso   1.00
C15    C     0.35226   0.14112   0.49994   0.00000  Uiso   1.00
C16    C     0.34918   0.07137   0.49994   0.00000  Uiso   1.00
N17    N     0.34629   0.25582   0.17801   0.00000  Uiso   1.00
N18    N     0.34630   0.25582   0.32189   0.00000  Uiso   1.00
C19    C     0.24979   0.47904   0.49996   0.00000  Uiso   1.00
C20    C     0.25268   0.04458   0.49995   0.00000  Uiso   1.00
C21    C     0.44280   0.03261   0.49994   0.00000  Uiso   1.00
C22    C     0.43991   0.46707   0.49995   0.00000  Uiso   1.00
C23    C     0.41655   0.21417   0.21397   0.00000  Uiso   1.00
C24    C     0.41655   0.21417   0.28591   0.00000  Uiso   1.00
C25    C     0.27604   0.29748   0.28593   0.00000  Uiso   1.00
C26    C     0.27603   0.29748   0.21398   0.00000  Uiso   1.00
H27    H     0.17121   0.45723   0.49996   0.00000  Uiso   1.00
H28    H     0.47376   0.18025   0.31519   0.00000  Uiso   1.00
H29    H     0.02137   0.05443   0.49993   0.00000  Uiso   1.00
H30    H     0.21883   0.33139   0.31522   0.00000  Uiso   1.00
H31    H     0.21881   0.33140   0.18470   0.00000  Uiso   1.00
H32    H     0.17646   0.07613   0.49994   0.00000  Uiso   1.00
H33    H     0.01614   0.43552   0.49995   0.00000  Uiso   1.00
H34    H     0.47376   0.18025   0.18468   0.00000  Uiso   1.00
O35    O     0.85328   0.16453   0.05709   0.00000  Uiso   1.00
O36    O     0.83930   0.34712   0.05710   0.00000  Uiso   1.00
O37    O     0.99828   0.25323   0.05709   0.00000  Uiso   1.00
O38    O     0.69429   0.25842   0.05709   0.00000  Uiso   1.00
O39    O     0.99829   0.25323   0.44280   0.00000  Uiso   1.00
O40    O     0.83931   0.34712   0.44281   0.00000  Uiso   1.00
O41    O     0.85328   0.16453   0.44280   0.00000  Uiso   1.00
Zn42   Zn    0.84630   0.25583   0.42466   0.00000  Uiso   1.00
Zn43   Zn    0.84629   0.25582   0.07524   0.00000  Uiso   1.00
O44    O     0.69430   0.25842   0.44280   0.00000  Uiso   1.00
C45    C     0.84033   0.37053   0.49996   0.00000  Uiso   1.00
C46    C     0.84340   0.44029   0.49996   0.00000  Uiso   1.00
C47    C     0.53721   0.25426   0.49995   0.00000  Uiso   1.00
C48    C     0.65538   0.25739   0.49995   0.00000  Uiso   1.00
C49    C     0.85226   0.14112   0.49994   0.00000  Uiso   1.00
C50    C     0.84918   0.07137   0.49994   0.00000  Uiso   1.00
N51    N     0.84629   0.25582   0.17801   0.00000  Uiso   1.00
N52    N     0.84630   0.25582   0.32189   0.00000  Uiso   1.00
C53    C     0.74979   0.47904   0.49996   0.00000  Uiso   1.00
C54    C     0.75268   0.04458   0.49995   0.00000  Uiso   1.00
C55    C     0.94280   0.03261   0.49994   0.00000  Uiso   1.00
C56    C     0.93991   0.46707   0.49995   0.00000  Uiso   1.00
C57    C     0.91655   0.21417   0.21397   0.00000  Uiso   1.00
C58    C     0.91655   0.21417   0.28591   0.00000  Uiso   1.00
C59    C     0.77604   0.29748   0.28593   0.00000  Uiso   1.00
C60    C     0.77603   0.29748   0.21398   0.00000  Uiso   1.00
H61    H     0.67121   0.45723   0.49996   0.00000  Uiso   1.00
H62    H     0.97376   0.18025   0.31519   0.00000  Uiso   1.00
H63    H     0.52137   0.05443   0.49993   0.00000  Uiso   1.00
H64    H     0.71883   0.33139   0.31522   0.00000  Uiso   1.00
H65    H     0.71881   0.33140   0.18470   0.00000  Uiso   1.00
H66    H     0.67646   0.07613   0.49994   0.00000  Uiso   1.00
H67    H     0.51614   0.43552   0.49995   0.00000  Uiso   1.00
H68    H     0.97376   0.18025   0.18468   0.00000  Uiso   1.00
O69    O     0.35328   0.66453   0.05709   0.00000  Uiso   1.00
O70    O     0.33930   0.84712   0.05710   0.00000  Uiso   1.00
O71    O     0.49828   0.75323   0.05709   0.00000  Uiso   1.00
O72    O     0.19429   0.75842   0.05709   0.00000  Uiso   1.00
O73    O     0.49829   0.75323   0.44280   0.00000  Uiso   1.00
O74    O     0.33931   0.84712   0.44281   0.00000  Uiso   1.00
O75    O     0.35328   0.66453   0.44280   0.00000  Uiso   1.00
Zn76   Zn    0.34630   0.75583   0.42466   0.00000  Uiso   1.00
Zn77   Zn    0.34629   0.75582   0.07524   0.00000  Uiso   1.00
O78    O     0.19430   0.75842   0.44280   0.00000  Uiso   1.00
C79    C     0.34033   0.87053   0.49996   0.00000  Uiso   1.00
C80    C     0.34340   0.94029   0.49996   0.00000  Uiso   1.00
C81    C     0.03721   0.75426   0.49995   0.00000  Uiso   1.00
C82    C     0.15538   0.75739   0.49995   0.00000  Uiso   1.00
C83    C     0.35226   0.64112   0.49994   0.00000  Uiso   1.00
C84    C     0.34918   0.57137   0.49994   0.00000  Uiso   1.00
N85    N     0.34629   0.75582   0.17801   0.00000  Uiso   1.00
N86    N     0.34630   0.75582   0.32189   0.00000  Uiso   1.00
C87    C     0.24979   0.97904   0.49996   0.00000  Uiso   1.00
C88    C     0.25268   0.54458   0.49995   0.00000  Uiso   1.00
C89    C     0.44280   0.53261   0.49994   0.00000  Uiso   1.00
C90    C     0.43991   0.96707   0.49995   0.00000  Uiso   1.00
C91    C     0.41655   0.71417   0.21397   0.00000  Uiso   1.00
C92    C     0.41655   0.71417   0.28591   0.00000  Uiso   1.00
C93    C     0.27604   0.79748   0.28593   0.00000  Uiso   1.00
C94    C     0.27603   0.79748   0.21398   0.00000  Uiso   1.00
H95    H     0.17121   0.95723   0.49996   0.00000  Uiso   1.00
H96    H     0.47376   0.68025   0.31519   0.00000  Uiso   1.00
H97    H     0.02137   0.55443   0.49993   0.00000  Uiso   1.00
H98    H     0.21883   0.83139   0.31522   0.00000  Uiso   1.00
H99    H     0.21881   0.83140   0.18470   0.00000  Uiso   1.00
H100   H     0.17646   0.57613   0.49994   0.00000  Uiso   1.00
H101   H     0.01614   0.93552   0.49995   0.00000  Uiso   1.00
H102   H     0.47376   0.68025   0.18468   0.00000  Uiso   1.00
O103   O     0.85328   0.66453   0.05709   0.00000  Uiso   1.00
O104   O     0.83930   0.84712   0.05710   0.00000  Uiso   1.00
O105   O     0.99828   0.75323   0.05709   0.00000  Uiso   1.00
O106   O     0.69429   0.75842   0.05709   0.00000  Uiso   1.00
O107   O     0.99829   0.75323   0.44280   0.00000  Uiso   1.00
O108   O     0.83931   0.84712   0.44281   0.00000  Uiso   1.00
O109   O     0.85328   0.66453   0.44280   0.00000  Uiso   1.00
Zn110  Zn    0.84630   0.75583   0.42466   0.00000  Uiso   1.00
Zn111  Zn    0.84629   0.75582   0.07524   0.00000  Uiso   1.00
O112   O     0.69430   0.75842   0.44280   0.00000  Uiso   1.00
C113   C     0.84033   0.87053   0.49996   0.00000  Uiso   1.00
C114   C     0.84340   0.94029   0.49996   0.00000  Uiso   1.00
C115   C     0.53721   0.75426   0.49995   0.00000  Uiso   1.00
C116   C     0.65538   0.75739   0.49995   0.00000  Uiso   1.00
C117   C     0.85226   0.64112   0.49994   0.00000  Uiso   1.00
C118   C     0.84918   0.57137   0.49994   0.00000  Uiso   1.00
N119   N     0.84629   0.75582   0.17801   0.00000  Uiso   1.00
N120   N     0.84630   0.75582   0.32189   0.00000  Uiso   1.00
C121   C     0.74979   0.97904   0.49996   0.00000  Uiso   1.00
C122   C     0.75268   0.54458   0.49995   0.00000  Uiso   1.00
C123   C     0.94280   0.53261   0.49994   0.00000  Uiso   1.00
C124   C     0.93991   0.96707   0.49995   0.00000  Uiso   1.00
C125   C     0.91655   0.71417   0.21397   0.00000  Uiso   1.00
C126   C     0.91655   0.71417   0.28591   0.00000  Uiso   1.00
C127   C     0.77604   0.79748   0.28593   0.00000  Uiso   1.00
C128   C     0.77603   0.79748   0.21398   0.00000  Uiso   1.00
H129   H     0.67121   0.95723   0.49996   0.00000  Uiso   1.00
H130   H     0.97376   0.68025   0.31519   0.00000  Uiso   1.00
H131   H     0.52137   0.55443   0.49993   0.00000  Uiso   1.00
H132   H     0.71883   0.83139   0.31522   0.00000  Uiso   1.00
H133   H     0.71881   0.83140   0.18470   0.00000  Uiso   1.00
H134   H     0.67646   0.57613   0.49994   0.00000  Uiso   1.00
H135   H     0.51614   0.93552   0.49995   0.00000  Uiso   1.00
H136   H     0.97376   0.68025   0.18468   0.00000  Uiso   1.00
O137   O     0.35328   0.16453   0.55709   0.00000  Uiso   1.00
O138   O     0.33930   0.34712   0.55710   0.00000  Uiso   1.00
O139   O     0.49828   0.25323   0.55709   0.00000  Uiso   1.00
O140   O     0.19429   0.25842   0.55709   0.00000  Uiso   1.00
O141   O     0.49829   0.25323   0.94280   0.00000  Uiso   1.00
O142   O     0.33931   0.34712   0.94281   0.00000  Uiso   1.00
O143   O     0.35328   0.16453   0.94280   0.00000  Uiso   1.00
Zn144  Zn    0.34630   0.25583   0.92466   0.00000  Uiso   1.00
Zn145  Zn    0.34629   0.25582   0.57524   0.00000  Uiso   1.00
O146   O     0.19430   0.25842   0.94280   0.00000  Uiso   1.00
C147   C     0.34033   0.37053   0.99996   0.00000  Uiso   1.00
C148   C     0.34340   0.44029   0.99996   0.00000  Uiso   1.00
C149   C     0.03721   0.25426   0.99995   0.00000  Uiso   1.00
C150   C     0.15538   0.25739   0.99995   0.00000  Uiso   1.00
C151   C     0.35226   0.14112   0.99994   0.00000  Uiso   1.00
C152   C     0.34918   0.07137   0.99994   0.00000  Uiso   1.00
N153   N     0.34629   0.25582   0.67801   0.00000  Uiso   1.00
N154   N     0.34630   0.25582   0.82189   0.00000  Uiso   1.00
C155   C     0.24979   0.47904   0.99996   0.00000  Uiso   1.00
C156   C     0.25268   0.04458   0.99995   0.00000  Uiso   1.00
C157   C     0.44280   0.03261   0.99994   0.00000  Uiso   1.00
C158   C     0.43991   0.46707   0.99995   0.00000  Uiso   1.00
C159   C     0.41655   0.21417   0.71397   0.00000  Uiso   1.00
C160   C     0.41655   0.21417   0.78591   0.00000  Uiso   1.00
C161   C     0.27604   0.29748   0.78593   0.00000  Uiso   1.00
C162   C     0.27603   0.29748   0.71398   0.00000  Uiso   1.00
H163   H     0.17121   0.45723   0.99996   0.00000  Uiso   1.00
H164   H     0.47376   0.18025   0.81519   0.00000  Uiso   1.00
H165   H     0.02137   0.05443   0.99993   0.00000  Uiso   1.00
H166   H     0.21883   0.33139   0.81522   0.00000  Uiso   1.00
H167   H     0.21881   0.33140   0.68470   0.00000  Uiso   1.00
H168   H     0.17646   0.07613   0.99994   0.00000  Uiso   1.00
H169   H     0.01614   0.43552   0.99995   0.00000  Uiso   1.00
H170   H     0.47376   0.18025   0.68468   0.00000  Uiso   1.00
O171   O     0.85328   0.16453   0.55709   0.00000  Uiso   1.00
O172   O     0.83930   0.34712   0.55710   0.00000  Uiso   1.00
O173   O     0.99828   0.25323   0.55709   0.00000  Uiso   1.00
O174   O     0.69429   0.25842   0.55709   0.00000  Uiso   1.00
O175   O     0.99829   0.25323   0.94280   0.00000  Uiso   1.00
O176   O     0.83931   0.34712   0.94281   0.00000  Uiso   1.00
O177   O     0.85328   0.16453   0.94280   0.00000  Uiso   1.00
Zn178  Zn    0.84630   0.25583   0.92466   0.00000  Uiso   1.00
Zn179  Zn    0.84629   0.25582   0.57524   0.00000  Uiso   1.00
O180   O     0.69430   0.25842   0.94280   0.00000  Uiso   1.00
C181   C     0.84033   0.37053   0.99996   0.00000  Uiso   1.00
C182   C     0.84340   0.44029   0.99996   0.00000  Uiso   1.00
C183   C     0.53721   0.25426   0.99995   0.00000  Uiso   1.00
C184   C     0.65538   0.25739   0.99995   0.00000  Uiso   1.00
C185   C     0.85226   0.14112   0.99994   0.00000  Uiso   1.00
C186   C     0.84918   0.07137   0.99994   0.00000  Uiso   1.00
N187   N     0.84629   0.25582   0.67801   0.00000  Uiso   1.00
N188   N     0.84630   0.25582   0.82189   0.00000  Uiso   1.00
C189   C     0.74979   0.47904   0.99996   0.00000  Uiso   1.00
C190   C     0.75268   0.04458   0.99995   0.00000  Uiso   1.00
C191   C     0.94280   0.03261   0.99994   0.00000  Uiso   1.00
C192   C     0.93991   0.46707   0.99995   0.00000  Uiso   1.00
C193   C     0.91655   0.21417   0.71397   0.00000  Uiso   1.00
C194   C     0.91655   0.21417   0.78591   0.00000  Uiso   1.00
C195   C     0.77604   0.29748   0.78593   0.00000  Uiso   1.00
C196   C     0.77603   0.29748   0.71398   0.00000  Uiso   1.00
H197   H     0.67121   0.45723   0.99996   0.00000  Uiso   1.00
H198   H     0.97376   0.18025   0.81519   0.00000  Uiso   1.00
H199   H     0.52137   0.05443   0.99993   0.00000  Uiso   1.00
H200   H     0.71883   0.33139   0.81522   0.00000  Uiso   1.00
H201   H     0.71881   0.33140   0.68470   0.00000  Uiso   1.00
H202   H     0.67646   0.07613   0.99994   0.00000  Uiso   1.00
H203   H     0.51614   0.43552   0.99995   0.00000  Uiso   1.00
H204   H     0.97376   0.18025   0.68468   0.00000  Uiso   1.00
O205   O     0.35328   0.66453   0.55709   0.00000  Uiso   1.00
O206   O     0.33930   0.84712   0.55710   0.00000  Uiso   1.00
O207   O     0.49828   0.75323   0.55709   0.00000  Uiso   1.00
O208   O     0.19429   0.75842   0.55709   0.00000  Uiso   1.00
O209   O     0.49829   0.75323   0.94280   0.00000  Uiso   1.00
O210   O     0.33931   0.84712   0.94281   0.00000  Uiso   1.00
O211   O     0.35328   0.66453   0.94280   0.00000  Uiso   1.00
Zn212  Zn    0.34630   0.75583   0.92466   0.00000  Uiso   1.00
Zn213  Zn    0.34629   0.75582   0.57524   0.00000  Uiso   1.00
O214   O     0.19430   0.75842   0.94280   0.00000  Uiso   1.00
C215   C     0.34033   0.87053   0.99996   0.00000  Uiso   1.00
C216   C     0.34340   0.94029   0.99996   0.00000  Uiso   1.00
C217   C     0.03721   0.75426   0.99995   0.00000  Uiso   1.00
C218   C     0.15538   0.75739   0.99995   0.00000  Uiso   1.00
C219   C     0.35226   0.64112   0.99994   0.00000  Uiso   1.00
C220   C     0.34918   0.57137   0.99994   0.00000  Uiso   1.00
N221   N     0.34629   0.75582   0.67801   0.00000  Uiso   1.00
N222   N     0.34630   0.75582   0.82189   0.00000  Uiso   1.00
C223   C     0.24979   0.97904   0.99996   0.00000  Uiso   1.00
C224   C     0.25268   0.54458   0.99995   0.00000  Uiso   1.00
C225   C     0.44280   0.53261   0.99994   0.00000  Uiso   1.00
C226   C     0.43991   0.96707   0.99995   0.00000  Uiso   1.00
C227   C     0.41655   0.71417   0.71397   0.00000  Uiso   1.00
C228   C     0.41655   0.71417   0.78591   0.00000  Uiso   1.00
C229   C     0.27604   0.79748   0.78593   0.00000  Uiso   1.00
C230   C     0.27603   0.79748   0.71398   0.00000  Uiso   1.00
H231   H     0.17121   0.95723   0.99996   0.00000  Uiso   1.00
H232   H     0.47376   0.68025   0.81519   0.00000  Uiso   1.00
H233   H     0.02137   0.55443   0.99993   0.00000  Uiso   1.00
H234   H     0.21883   0.83139   0.81522   0.00000  Uiso   1.00
H235   H     0.21881   0.83140   0.68470   0.00000  Uiso   1.00
H236   H     0.17646   0.57613   0.99994   0.00000  Uiso   1.00
H237   H     0.01614   0.93552   0.99995   0.00000  Uiso   1.00
H238   H     0.47376   0.68025   0.68468   0.00000  Uiso   1.00
O239   O     0.85328   0.66453   0.55709   0.00000  Uiso   1.00
O240   O     0.83930   0.84712   0.55710   0.00000  Uiso   1.00
O241   O     0.99828   0.75323   0.55709   0.00000  Uiso   1.00
O242   O     0.69429   0.75842   0.55709   0.00000  Uiso   1.00
O243   O     0.99829   0.75323   0.94280   0.00000  Uiso   1.00
O244   O     0.83931   0.84712   0.94281   0.00000  Uiso   1.00
O245   O     0.85328   0.66453   0.94280   0.00000  Uiso   1.00
Zn246  Zn    0.84630   0.75583   0.92466   0.00000  Uiso   1.00
Zn247  Zn    0.84629   0.75582   0.57524   0.00000  Uiso   1.00
O248   O     0.69430   0.75842   0.94280   0.00000  Uiso   1.00
C249   C     0.84033   0.87053   0.99996   0.00000  Uiso   1.00
C250   C     0.84340   0.94029   0.99996   0.00000  Uiso   1.00
C251   C     0.53721   0.75426   0.99995   0.00000  Uiso   1.00
C252   C     0.65538   0.75739   0.99995   0.00000  Uiso   1.00
C253   C     0.85226   0.64112   0.99994   0.00000  Uiso   1.00
C254   C     0.84918   0.57137   0.99994   0.00000  Uiso   1.00
N255   N     0.84629   0.75582   0.67801   0.00000  Uiso   1.00
N256   N     0.84630   0.75582   0.82189   0.00000  Uiso   1.00
C257   C     0.74979   0.97904   0.99996   0.00000  Uiso   1.00
C258   C     0.75268   0.54458   0.99995   0.00000  Uiso   1.00
C259   C     0.94280   0.53261   0.99994   0.00000  Uiso   1.00
C260   C     0.93991   0.96707   0.99995   0.00000  Uiso   1.00
C261   C     0.91655   0.71417   0.71397   0.00000  Uiso   1.00
C262   C     0.91655   0.71417   0.78591   0.00000  Uiso   1.00
C263   C     0.77604   0.79748   0.78593   0.00000  Uiso   1.00
C264   C     0.77603   0.79748   0.71398   0.00000  Uiso   1.00
H265   H     0.67121   0.95723   0.99996   0.00000  Uiso   1.00
H266   H     0.97376   0.68025   0.81519   0.00000  Uiso   1.00
H267   H     0.52137   0.55443   0.99993   0.00000  Uiso   1.00
H268   H     0.71883   0.83139   0.81522   0.00000  Uiso   1.00
H269   H     0.71881   0.83140   0.68470   0.00000  Uiso   1.00
H270   H     0.67646   0.57613   0.99994   0.00000  Uiso   1.00
H271   H     0.51614   0.93552   0.99995   0.00000  Uiso   1.00
H272   H     0.97376   0.68025   0.68468   0.00000  Uiso   1.00
