data_Zn4O_cluster
_audit_creation_date              2016-05-11
_audit_creation_method            'Materials Studio'
_symmetry_space_group_name_H-M    'P1'
_symmetry_Int_Tables_number       1
_symmetry_cell_setting            triclinic
loop_
_symmetry_equiv_pos_as_xyz
  x,y,z
_cell_length_a                    10.0000
_cell_length_b                    10.0000
_cell_length_c                    10.0000
_cell_angle_alpha                 90.0000
_cell_angle_beta                  90.0000
_cell_angle_gamma                 90.0000
loop_
_atom_site_label
_atom_site_type_symbol
_atom_site_fract_x
_atom_site_fract_y
_atom_site_fract_z
_atom_site_U_iso_or_equiv
_atom_site_adp_type
_atom_site_occupancy
Zn1    Zn    2.04951   1.82529   2.04951   0.00000  Uiso   1.00
Zn2    Zn    1.82529   1.82529   1.82529   0.00000  Uiso   1.00
Zn3    Zn    1.82529   2.04951   2.04951   0.00000  Uiso   1.00
Zn4    Zn    2.04951   2.04951   1.82529   0.00000  Uiso   1.00
O5     O     1.93740   1.93740   1.93740   0.00000  Uiso   1.00
O6     O     2.01980   1.85500   2.23705   0.00000  Uiso   1.00
O7     O     2.01980   2.01980   1.63775   0.00000  Uiso   1.00
O8     O     1.85500   1.63775   1.85500   0.00000  Uiso   1.00
O9     O     1.85500   2.23705   2.01980   0.00000  Uiso   1.00
O10    O     1.63775   2.01980   2.01980   0.00000  Uiso   1.00
O11    O     2.23705   2.01980   1.85500   0.00000  Uiso   1.00
O12    O     1.85500   2.01980   2.23705   0.00000  Uiso   1.00
O13    O     1.85500   1.85500   1.63775   0.00000  Uiso   1.00
O14    O     2.23705   1.85500   2.01980   0.00000  Uiso   1.00
O15    O     1.63775   1.85500   1.85500   0.00000  Uiso   1.00
O16    O     2.01980   2.23705   1.85500   0.00000  Uiso   1.00
O17    O     2.01980   1.63775   2.01980   0.00000  Uiso   1.00
C18    C     1.93740   1.93740   2.29569   0.00000  Uiso   1.00
C19    C     1.93740   1.93740   1.57911   0.00000  Uiso   1.00
C20    C     1.93740   1.57911   1.93740   0.00000  Uiso   1.00
C21    C     1.93740   2.29569   1.93740   0.00000  Uiso   1.00
C22    C     1.57911   1.93740   1.93740   0.00000  Uiso   1.00
C23    C     2.29569   1.93740   1.93740   0.00000  Uiso   1.00
H24    H     1.93278   1.94202   2.40950   0.00000  Uiso   1.00
H25    H     1.93278   1.93278   1.46530   0.00000  Uiso   1.00
H26    H     1.94202   1.46530   1.94202   0.00000  Uiso   1.00
H27    H     1.94202   2.40950   1.93278   0.00000  Uiso   1.00
H28    H     1.46530   1.93278   1.93278   0.00000  Uiso   1.00
H29    H     2.40950   1.93278   1.94202   0.00000  Uiso   1.00
loop_
_geom_bond_atom_site_label_1
_geom_bond_atom_site_label_2
_geom_bond_distance
_geom_bond_site_symmetry_2
_ccdc_geom_bond_type
Zn1    O5      1.942   .     S
Zn1    O6      1.922   .     S
Zn1    O14     1.922   .     S
Zn1    O17     1.922   .     S
Zn2    O5      1.942   .     S
Zn2    O8      1.922   .     S
Zn2    O13     1.922   .     S
Zn2    O15     1.922   .     S
Zn3    O5      1.942   .     S
Zn3    O9      1.922   .     S
Zn3    O12     1.922   .     S
Zn3    O10     1.922   .     S
Zn4    O5      1.942   .     S
Zn4    O11     1.922   .     S
Zn4    O16     1.922   .     S
Zn4    O7      1.922   .     S
O6     C18     1.305   .     A
O7     C19     1.305   .     A
O8     C20     1.305   .     A
O9     C21     1.305   .     A
O10    C22     1.305   .     A
O11    C23     1.305   .     A
O12    C18     1.305   .     A
O13    C19     1.305   .     A
O14    C23     1.305   .     A
O15    C22     1.305   .     A
O16    C21     1.305   .     A
O17    C20     1.305   .     A
C18    H24     1.140   .     S
C19    H25     1.140   .     S
C20    H26     1.140   .     S
C21    H27     1.140   .     S
C22    H28     1.140   .     S
C23    H29     1.140   .     S
